<?xml version="1.0" encoding="UTF-8"?>
        <routes>
            <vType id="veh_passenger" vClass="passenger" lcStrategic="0.1"/>
<trip id="veh0" type="veh_passenger" depart="0" departLane="best" from ="E_HZG_W_NMR" to="E_NMR_S" />
<trip id="veh1" type="veh_passenger" depart="0" departLane="best" from ="E_WZM_N_PNK" to="E_PNK_W" />
<trip id="veh2" type="veh_passenger" depart="0" departLane="best" from ="E_HZG_W_NMR" to="E_BLK_E" />
<trip id="veh3" type="veh_passenger" depart="1" departLane="best" from ="E_DOR_W_NMR" to="E_NMR_N" />
<trip id="veh4" type="veh_passenger" depart="1" departLane="best" from ="E_JBT_E_NMR" to="E_NMR_S" />
<trip id="veh5" type="veh_passenger" depart="2" departLane="best" from ="E_WZM_S_YMK" to="E_HRZ_E" />
<trip id="veh6" type="veh_passenger" depart="2" departLane="best" from ="E_AYA_N_GRN" to="E_YMK_W" />
<trip id="veh7" type="veh_passenger" depart="3" departLane="best" from ="E_AYA_N_HLC" to="E_HRZ_E" />
<trip id="veh8" type="veh_passenger" depart="4" departLane="best" from ="E_AYA_N_GRN" to="E_HRZ_E" />
<trip id="veh9" type="veh_passenger" depart="6" departLane="best" from ="E_AYA_N_GRN" to="E_BLK_E" />
<trip id="veh10" type="veh_passenger" depart="6" departLane="best" from ="E_NMR_N_JBT" to="E_HRZ_E" />
<trip id="veh11" type="veh_passenger" depart="7" departLane="best" from ="E_BLK_W_AYA" to="E_HRZ_E" />
<trip id="veh12" type="veh_passenger" depart="7" departLane="best" from ="E_HZG_W_NMR" to="E_AYA_N" />
<trip id="veh13" type="veh_passenger" depart="7" departLane="best" from ="E_DOR_W_NMR" to="E_NMR_N" />
<trip id="veh14" type="veh_passenger" depart="9" departLane="best" from ="E_YMK_E_WZM" to="E_BLK_E" />
<trip id="veh15" type="veh_passenger" depart="10" departLane="best" from ="E_PNK_E_WZM" to="E_HRZ_E" />
<trip id="veh16" type="veh_passenger" depart="11" departLane="best" from ="E_NMR_N_JBT" to="E_DOR_E" />
<trip id="veh17" type="veh_passenger" depart="11" departLane="best" from ="E_YMK_E_WZM" to="E_NMR_S" />
<trip id="veh18" type="veh_passenger" depart="12" departLane="best" from ="E_BLK_W_AYA" to="E_AYA_N" />
<trip id="veh19" type="veh_passenger" depart="12" departLane="best" from ="E_HZG_W_NMR" to="E_NMR_S" />
<trip id="veh20" type="veh_passenger" depart="12" departLane="best" from ="E_BLK_W_AYA" to="E_AYA_N" />
<trip id="veh21" type="veh_passenger" depart="12" departLane="best" from ="E_JBT_E_NMR" to="E_HRZ_E" />
<trip id="veh22" type="veh_passenger" depart="13" departLane="best" from ="E_NMR_S_YMK" to="E_PNK_W" />
<trip id="veh23" type="veh_passenger" depart="13" departLane="best" from ="E_NMR_S_YMK" to="E_NMR_S" />
<trip id="veh24" type="veh_passenger" depart="13" departLane="best" from ="E_WZM_S_YMK" to="E_NMR_S" />
<trip id="veh25" type="veh_passenger" depart="14" departLane="best" from ="E_NMR_N_JBT" to="E_AYA_N" />
<trip id="veh26" type="veh_passenger" depart="14" departLane="best" from ="E_AYA_N_HLC" to="E_WZM_S" />
<trip id="veh27" type="veh_passenger" depart="14" departLane="best" from ="E_NMR_N_JBT" to="E_BLK_E" />
<trip id="veh28" type="veh_passenger" depart="14" departLane="best" from ="E_PNK_E_WZM" to="E_NMR_N" />
<trip id="veh29" type="veh_passenger" depart="15" departLane="best" from ="E_AYA_N_HLC" to="E_PNK_W" />
<trip id="veh30" type="veh_passenger" depart="15" departLane="best" from ="E_BLK_W_AYA" to="E_WZM_N" />
<trip id="veh31" type="veh_passenger" depart="15" departLane="best" from ="E_PNK_E_WZM" to="E_WZM_S" />
<trip id="veh32" type="veh_passenger" depart="15" departLane="best" from ="E_AYA_N_HLC" to="E_WZM_N" />
<trip id="veh33" type="veh_passenger" depart="16" departLane="best" from ="E_HZG_W_NMR" to="E_PNK_W" />
<trip id="veh34" type="veh_passenger" depart="16" departLane="best" from ="E_PNK_E_WZM" to="E_BLK_E" />
<trip id="veh35" type="veh_passenger" depart="17" departLane="best" from ="E_YMK_E_WZM" to="E_AYA_S" />
<trip id="veh36" type="veh_passenger" depart="17" departLane="best" from ="E_NMR_S_YMK" to="E_NMR_S" />
<trip id="veh37" type="veh_passenger" depart="17" departLane="best" from ="E_HZG_W_NMR" to="E_NMR_N" />
<trip id="veh38" type="veh_passenger" depart="17" departLane="best" from ="E_NMR_N_JBT" to="E_NMR_N" />
<trip id="veh39" type="veh_passenger" depart="17" departLane="best" from ="E_HZG_W_NMR" to="E_PNK_W" />
<trip id="veh40" type="veh_passenger" depart="18" departLane="best" from ="E_AYA_N_HLC" to="E_HRZ_E" />
<trip id="veh41" type="veh_passenger" depart="20" departLane="best" from ="E_WZM_N_PNK" to="E_AYA_S" />
<trip id="veh42" type="veh_passenger" depart="20" departLane="best" from ="E_HZG_W_NMR" to="E_WZM_S" />
<trip id="veh43" type="veh_passenger" depart="20" departLane="best" from ="E_JBT_E_NMR" to="E_NMR_S" />
<trip id="veh44" type="veh_passenger" depart="20" departLane="best" from ="E_AYA_N_HLC" to="E_PNK_W" />
<trip id="veh45" type="veh_passenger" depart="21" departLane="best" from ="E_JBT_E_NMR" to="E_AYA_N" />
<trip id="veh46" type="veh_passenger" depart="22" departLane="best" from ="E_NMR_S_YMK" to="E_NMR_S" />
<trip id="veh47" type="veh_passenger" depart="22" departLane="best" from ="E_WZM_S_YMK" to="E_NMR_S" />
<trip id="veh48" type="veh_passenger" depart="22" departLane="best" from ="E_YMK_E_WZM" to="E_NMR_N" />
<trip id="veh49" type="veh_passenger" depart="23" departLane="best" from ="E_YMK_E_WZM" to="E_DOR_E" />
<trip id="veh50" type="veh_passenger" depart="23" departLane="best" from ="E_PNK_E_WZM" to="E_HRZ_E" />
<trip id="veh51" type="veh_passenger" depart="23" departLane="best" from ="E_WZM_N_PNK" to="E_WZM_N" />
<trip id="veh52" type="veh_passenger" depart="23" departLane="best" from ="E_JBT_E_NMR" to="E_HRZ_E" />
<trip id="veh53" type="veh_passenger" depart="23" departLane="best" from ="E_NMR_S_YMK" to="E_DOR_E" />
<trip id="veh54" type="veh_passenger" depart="23" departLane="best" from ="E_BLK_W_AYA" to="E_AYA_S" />
<trip id="veh55" type="veh_passenger" depart="24" departLane="best" from ="E_NMR_S_YMK" to="E_PNK_W" />
<trip id="veh56" type="veh_passenger" depart="24" departLane="best" from ="E_AYA_N_HLC" to="E_WZM_S" />
<trip id="veh57" type="veh_passenger" depart="24" departLane="best" from ="E_WZM_N_PNK" to="E_AYA_S" />
<trip id="veh58" type="veh_passenger" depart="24" departLane="best" from ="E_YMK_E_WZM" to="E_BLK_E" />
<trip id="veh59" type="veh_passenger" depart="25" departLane="best" from ="E_AYA_N_HLC" to="E_PNK_W" />
<trip id="veh60" type="veh_passenger" depart="25" departLane="best" from ="E_PNK_E_WZM" to="E_WZM_S" />
<trip id="veh61" type="veh_passenger" depart="25" departLane="best" from ="E_YMK_E_WZM" to="E_AYA_S" />
<trip id="veh62" type="veh_passenger" depart="26" departLane="best" from ="E_AYA_N_HLC" to="E_WZM_N" />
<trip id="veh63" type="veh_passenger" depart="26" departLane="best" from ="E_NMR_S_YMK" to="E_WZM_S" />
<trip id="veh64" type="veh_passenger" depart="27" departLane="best" from ="E_PNK_E_WZM" to="E_AYA_S" />
<trip id="veh65" type="veh_passenger" depart="29" departLane="best" from ="E_NMR_S_YMK" to="E_DOR_E" />
<trip id="veh66" type="veh_passenger" depart="29" departLane="best" from ="E_HZG_W_NMR" to="E_AYA_N" />
<trip id="veh67" type="veh_passenger" depart="29" departLane="best" from ="E_NMR_S_YMK" to="E_NMR_S" />
<trip id="veh68" type="veh_passenger" depart="29" departLane="best" from ="E_AYA_N_HLC" to="E_BLK_E" />
<trip id="veh69" type="veh_passenger" depart="30" departLane="best" from ="E_PNK_E_WZM" to="E_WZM_N" />
<trip id="veh70" type="veh_passenger" depart="30" departLane="best" from ="E_WZM_N_PNK" to="E_PNK_W" />
<trip id="veh71" type="veh_passenger" depart="30" departLane="best" from ="E_PNK_E_WZM" to="E_AYA_S" />
<trip id="veh72" type="veh_passenger" depart="31" departLane="best" from ="E_WZM_N_PNK" to="E_HRZ_E" />
<trip id="veh73" type="veh_passenger" depart="31" departLane="best" from ="E_WZM_S_YMK" to="E_HRZ_E" />
<trip id="veh74" type="veh_passenger" depart="32" departLane="best" from ="E_YMK_E_WZM" to="E_NMR_S" />
<trip id="veh75" type="veh_passenger" depart="33" departLane="best" from ="E_WZM_N_PNK" to="E_WZM_N" />
<trip id="veh76" type="veh_passenger" depart="33" departLane="best" from ="E_YMK_E_WZM" to="E_HRZ_E" />
<trip id="veh77" type="veh_passenger" depart="33" departLane="best" from ="E_NMR_N_JBT" to="E_BLK_E" />
<trip id="veh78" type="veh_passenger" depart="34" departLane="best" from ="E_JBT_E_NMR" to="E_NMR_S" />
<trip id="veh79" type="veh_passenger" depart="34" departLane="best" from ="E_WZM_S_YMK" to="E_DOR_E" />
<trip id="veh80" type="veh_passenger" depart="35" departLane="best" from ="E_JBT_E_NMR" to="E_NMR_S" />
<trip id="veh81" type="veh_passenger" depart="35" departLane="best" from ="E_JBT_E_NMR" to="E_HRZ_E" />
<trip id="veh82" type="veh_passenger" depart="35" departLane="best" from ="E_WZM_N_PNK" to="E_AYA_N" />
<trip id="veh83" type="veh_passenger" depart="35" departLane="best" from ="E_DOR_W_NMR" to="E_NMR_N" />
<trip id="veh84" type="veh_passenger" depart="36" departLane="best" from ="E_BLK_W_AYA" to="E_WZM_N" />
<trip id="veh85" type="veh_passenger" depart="36" departLane="best" from ="E_BLK_W_AYA" to="E_WZM_S" />
<trip id="veh86" type="veh_passenger" depart="36" departLane="best" from ="E_PNK_E_WZM" to="E_NMR_N" />
<trip id="veh87" type="veh_passenger" depart="37" departLane="best" from ="E_NMR_N_JBT" to="E_HRZ_E" />
<trip id="veh88" type="veh_passenger" depart="37" departLane="best" from ="E_WZM_N_PNK" to="E_WZM_N" />
<trip id="veh89" type="veh_passenger" depart="37" departLane="best" from ="E_HZG_W_NMR" to="E_JBT_W" />
<trip id="veh90" type="veh_passenger" depart="37" departLane="best" from ="E_HZG_W_NMR" to="E_JBT_W" />
<trip id="veh91" type="veh_passenger" depart="37" departLane="best" from ="E_PNK_E_WZM" to="E_HRZ_E" />
<trip id="veh92" type="veh_passenger" depart="38" departLane="best" from ="E_AYA_N_HLC" to="E_WZM_N" />
<trip id="veh93" type="veh_passenger" depart="38" departLane="best" from ="E_JBT_E_NMR" to="E_AYA_N" />
<trip id="veh94" type="veh_passenger" depart="38" departLane="best" from ="E_PNK_E_WZM" to="E_DOR_E" />
<trip id="veh95" type="veh_passenger" depart="38" departLane="best" from ="E_DOR_W_NMR" to="E_AYA_N" />
<trip id="veh96" type="veh_passenger" depart="39" departLane="best" from ="E_PNK_E_WZM" to="E_HRZ_E" />
<trip id="veh97" type="veh_passenger" depart="39" departLane="best" from ="E_JBT_E_NMR" to="E_DOR_E" />
<trip id="veh98" type="veh_passenger" depart="39" departLane="best" from ="E_AYA_N_HLC" to="E_BLK_E" />
<trip id="veh99" type="veh_passenger" depart="42" departLane="best" from ="E_NMR_N_JBT" to="E_BLK_E" />
<trip id="veh100" type="veh_passenger" depart="42" departLane="best" from ="E_NMR_S_YMK" to="E_AYA_N" />
<trip id="veh101" type="veh_passenger" depart="43" departLane="best" from ="E_JBT_E_NMR" to="E_AYA_S" />
<trip id="veh102" type="veh_passenger" depart="44" departLane="best" from ="E_AYA_N_GRN" to="E_YMK_W" />
<trip id="veh103" type="veh_passenger" depart="44" departLane="best" from ="E_AYA_N_HLC" to="E_WZM_S" />
<trip id="veh104" type="veh_passenger" depart="44" departLane="best" from ="E_WZM_S_YMK" to="E_PNK_W" />
<trip id="veh105" type="veh_passenger" depart="44" departLane="best" from ="E_PNK_E_WZM" to="E_BLK_E" />
<trip id="veh106" type="veh_passenger" depart="45" departLane="best" from ="E_NMR_N_JBT" to="E_DOR_E" />
<trip id="veh107" type="veh_passenger" depart="45" departLane="best" from ="E_WZM_N_PNK" to="E_WZM_N" />
<trip id="veh108" type="veh_passenger" depart="45" departLane="best" from ="E_YMK_E_WZM" to="E_NMR_N" />
<trip id="veh109" type="veh_passenger" depart="45" departLane="best" from ="E_WZM_S_YMK" to="E_DOR_E" />
<trip id="veh110" type="veh_passenger" depart="46" departLane="best" from ="E_WZM_N_PNK" to="E_AYA_N" />
<trip id="veh111" type="veh_passenger" depart="46" departLane="best" from ="E_NMR_N_JBT" to="E_AYA_N" />
<trip id="veh112" type="veh_passenger" depart="47" departLane="best" from ="E_BLK_W_AYA" to="E_NMR_N" />
<trip id="veh113" type="veh_passenger" depart="47" departLane="best" from ="E_BLK_W_AYA" to="E_WZM_N" />
<trip id="veh114" type="veh_passenger" depart="47" departLane="best" from ="E_DOR_W_NMR" to="E_AYA_N" />
<trip id="veh115" type="veh_passenger" depart="47" departLane="best" from ="E_AYA_N_GRN" to="E_WZM_N" />
<trip id="veh116" type="veh_passenger" depart="48" departLane="best" from ="E_NMR_N_JBT" to="E_NMR_N" />
<trip id="veh117" type="veh_passenger" depart="49" departLane="best" from ="E_HZG_W_NMR" to="E_WZM_N" />
<trip id="veh118" type="veh_passenger" depart="50" departLane="best" from ="E_NMR_N_JBT" to="E_BLK_E" />
<trip id="veh119" type="veh_passenger" depart="50" departLane="best" from ="E_DOR_W_NMR" to="E_BLK_E" />
<trip id="veh120" type="veh_passenger" depart="50" departLane="best" from ="E_JBT_E_NMR" to="E_AYA_S" />
<trip id="veh121" type="veh_passenger" depart="51" departLane="best" from ="E_AYA_N_HLC" to="E_PNK_W" />
<trip id="veh122" type="veh_passenger" depart="51" departLane="best" from ="E_YMK_E_WZM" to="E_NMR_N" />
<trip id="veh123" type="veh_passenger" depart="52" departLane="best" from ="E_WZM_N_PNK" to="E_PNK_W" />
<trip id="veh124" type="veh_passenger" depart="52" departLane="best" from ="E_DOR_W_NMR" to="E_NMR_N" />
<trip id="veh125" type="veh_passenger" depart="53" departLane="best" from ="E_NMR_S_YMK" to="E_BLK_E" />
<trip id="veh126" type="veh_passenger" depart="54" departLane="best" from ="E_NMR_S_YMK" to="E_JBT_W" />
<trip id="veh127" type="veh_passenger" depart="55" departLane="best" from ="E_WZM_N_PNK" to="E_AYA_N" />
<trip id="veh128" type="veh_passenger" depart="55" departLane="best" from ="E_HZG_W_NMR" to="E_JBT_W" />
<trip id="veh129" type="veh_passenger" depart="55" departLane="best" from ="E_NMR_S_YMK" to="E_WZM_S" />
<trip id="veh130" type="veh_passenger" depart="57" departLane="best" from ="E_JBT_E_NMR" to="E_DOR_E" />
<trip id="veh131" type="veh_passenger" depart="57" departLane="best" from ="E_YMK_E_WZM" to="E_WZM_N" />
<trip id="veh132" type="veh_passenger" depart="57" departLane="best" from ="E_WZM_S_YMK" to="E_YMK_W" />
<trip id="veh133" type="veh_passenger" depart="58" departLane="best" from ="E_PNK_E_WZM" to="E_NMR_N" />
<trip id="veh134" type="veh_passenger" depart="59" departLane="best" from ="E_DOR_W_NMR" to="E_NMR_N" />
<trip id="veh135" type="veh_passenger" depart="59" departLane="best" from ="E_WZM_S_YMK" to="E_WZM_S" />
<trip id="veh136" type="veh_passenger" depart="60" departLane="best" from ="E_NMR_S_YMK" to="E_AYA_N" />
<trip id="veh137" type="veh_passenger" depart="61" departLane="best" from ="E_PNK_E_WZM" to="E_NMR_S" />
<trip id="veh138" type="veh_passenger" depart="61" departLane="best" from ="E_PNK_E_WZM" to="E_AYA_N" />
<trip id="veh139" type="veh_passenger" depart="61" departLane="best" from ="E_YMK_E_WZM" to="E_WZM_N" />
<trip id="veh140" type="veh_passenger" depart="61" departLane="best" from ="E_YMK_E_WZM" to="E_WZM_N" />
<trip id="veh141" type="veh_passenger" depart="62" departLane="best" from ="E_WZM_S_YMK" to="E_AYA_S" />
<trip id="veh142" type="veh_passenger" depart="63" departLane="best" from ="E_NMR_S_YMK" to="E_WZM_S" />
<trip id="veh143" type="veh_passenger" depart="63" departLane="best" from ="E_AYA_N_HLC" to="E_NMR_N" />
<trip id="veh144" type="veh_passenger" depart="63" departLane="best" from ="E_JBT_E_NMR" to="E_HRZ_E" />
<trip id="veh145" type="veh_passenger" depart="63" departLane="best" from ="E_WZM_S_YMK" to="E_DOR_E" />
<trip id="veh146" type="veh_passenger" depart="63" departLane="best" from ="E_AYA_N_GRN" to="E_PNK_W" />
<trip id="veh147" type="veh_passenger" depart="64" departLane="best" from ="E_AYA_N_GRN" to="E_HRZ_E" />
<trip id="veh148" type="veh_passenger" depart="64" departLane="best" from ="E_AYA_N_HLC" to="E_WZM_S" />
<trip id="veh149" type="veh_passenger" depart="64" departLane="best" from ="E_YMK_E_WZM" to="E_NMR_N" />
<trip id="veh150" type="veh_passenger" depart="65" departLane="best" from ="E_DOR_W_NMR" to="E_BLK_E" />
<trip id="veh151" type="veh_passenger" depart="65" departLane="best" from ="E_HZG_W_NMR" to="E_DOR_E" />
<trip id="veh152" type="veh_passenger" depart="65" departLane="best" from ="E_NMR_N_JBT" to="E_AYA_N" />
<trip id="veh153" type="veh_passenger" depart="65" departLane="best" from ="E_PNK_E_WZM" to="E_WZM_S" />
<trip id="veh154" type="veh_passenger" depart="65" departLane="best" from ="E_AYA_N_GRN" to="E_BLK_E" />
<trip id="veh155" type="veh_passenger" depart="66" departLane="best" from ="E_WZM_N_PNK" to="E_BLK_E" />
<trip id="veh156" type="veh_passenger" depart="66" departLane="best" from ="E_BLK_W_AYA" to="E_WZM_S" />
<trip id="veh157" type="veh_passenger" depart="66" departLane="best" from ="E_YMK_E_WZM" to="E_DOR_E" />
<trip id="veh158" type="veh_passenger" depart="67" departLane="best" from ="E_NMR_S_YMK" to="E_BLK_E" />
<trip id="veh159" type="veh_passenger" depart="67" departLane="best" from ="E_WZM_N_PNK" to="E_WZM_N" />
<trip id="veh160" type="veh_passenger" depart="68" departLane="best" from ="E_PNK_E_WZM" to="E_WZM_N" />
<trip id="veh161" type="veh_passenger" depart="68" departLane="best" from ="E_BLK_W_AYA" to="E_HRZ_E" />
<trip id="veh162" type="veh_passenger" depart="68" departLane="best" from ="E_BLK_W_AYA" to="E_WZM_S" />
<trip id="veh163" type="veh_passenger" depart="70" departLane="best" from ="E_WZM_S_YMK" to="E_YMK_W" />
<trip id="veh164" type="veh_passenger" depart="70" departLane="best" from ="E_PNK_E_WZM" to="E_WZM_N" />
<trip id="veh165" type="veh_passenger" depart="70" departLane="best" from ="E_DOR_W_NMR" to="E_NMR_N" />
<trip id="veh166" type="veh_passenger" depart="70" departLane="best" from ="E_WZM_N_PNK" to="E_WZM_N" />
<trip id="veh167" type="veh_passenger" depart="70" departLane="best" from ="E_HZG_W_NMR" to="E_WZM_S" />
<trip id="veh168" type="veh_passenger" depart="71" departLane="best" from ="E_HZG_W_NMR" to="E_YMK_W" />
<trip id="veh169" type="veh_passenger" depart="71" departLane="best" from ="E_DOR_W_NMR" to="E_BLK_E" />
<trip id="veh170" type="veh_passenger" depart="71" departLane="best" from ="E_JBT_E_NMR" to="E_HRZ_E" />
<trip id="veh171" type="veh_passenger" depart="72" departLane="best" from ="E_DOR_W_NMR" to="E_BLK_E" />
<trip id="veh172" type="veh_passenger" depart="73" departLane="best" from ="E_AYA_N_GRN" to="E_YMK_W" />
<trip id="veh173" type="veh_passenger" depart="73" departLane="best" from ="E_DOR_W_NMR" to="E_AYA_N" />
<trip id="veh174" type="veh_passenger" depart="73" departLane="best" from ="E_PNK_E_WZM" to="E_DOR_E" />
<trip id="veh175" type="veh_passenger" depart="74" departLane="best" from ="E_BLK_W_AYA" to="E_NMR_N" />
<trip id="veh176" type="veh_passenger" depart="74" departLane="best" from ="E_AYA_N_GRN" to="E_PNK_W" />
<trip id="veh177" type="veh_passenger" depart="74" departLane="best" from ="E_WZM_N_PNK" to="E_AYA_N" />
<trip id="veh178" type="veh_passenger" depart="75" departLane="best" from ="E_NMR_N_JBT" to="E_NMR_N" />
<trip id="veh179" type="veh_passenger" depart="75" departLane="best" from ="E_NMR_S_YMK" to="E_AYA_S" />
<trip id="veh180" type="veh_passenger" depart="75" departLane="best" from ="E_PNK_E_WZM" to="E_HRZ_E" />
<trip id="veh181" type="veh_passenger" depart="76" departLane="best" from ="E_AYA_N_HLC" to="E_BLK_E" />
<trip id="veh182" type="veh_passenger" depart="76" departLane="best" from ="E_AYA_N_HLC" to="E_BLK_E" />
<trip id="veh183" type="veh_passenger" depart="76" departLane="best" from ="E_YMK_E_WZM" to="E_HRZ_E" />
<trip id="veh184" type="veh_passenger" depart="77" departLane="best" from ="E_JBT_E_NMR" to="E_AYA_S" />
<trip id="veh185" type="veh_passenger" depart="78" departLane="best" from ="E_WZM_N_PNK" to="E_HRZ_E" />
<trip id="veh186" type="veh_passenger" depart="79" departLane="best" from ="E_AYA_N_GRN" to="E_BLK_E" />
<trip id="veh187" type="veh_passenger" depart="79" departLane="best" from ="E_PNK_E_WZM" to="E_BLK_E" />
<trip id="veh188" type="veh_passenger" depart="80" departLane="best" from ="E_DOR_W_NMR" to="E_AYA_N" />
<trip id="veh189" type="veh_passenger" depart="80" departLane="best" from ="E_YMK_E_WZM" to="E_AYA_N" />
<trip id="veh190" type="veh_passenger" depart="80" departLane="best" from ="E_PNK_E_WZM" to="E_NMR_S" />
<trip id="veh191" type="veh_passenger" depart="81" departLane="best" from ="E_DOR_W_NMR" to="E_AYA_N" />
<trip id="veh192" type="veh_passenger" depart="81" departLane="best" from ="E_AYA_N_HLC" to="E_WZM_N" />
<trip id="veh193" type="veh_passenger" depart="81" departLane="best" from ="E_HZG_W_NMR" to="E_YMK_W" />
<trip id="veh194" type="veh_passenger" depart="82" departLane="best" from ="E_PNK_E_WZM" to="E_NMR_S" />
<trip id="veh195" type="veh_passenger" depart="82" departLane="best" from ="E_BLK_W_AYA" to="E_AYA_S" />
<trip id="veh196" type="veh_passenger" depart="82" departLane="best" from ="E_WZM_N_PNK" to="E_PNK_W" />
<trip id="veh197" type="veh_passenger" depart="82" departLane="best" from ="E_WZM_N_PNK" to="E_HRZ_E" />
<trip id="veh198" type="veh_passenger" depart="83" departLane="best" from ="E_BLK_W_AYA" to="E_WZM_S" />
<trip id="veh199" type="veh_passenger" depart="83" departLane="best" from ="E_AYA_N_GRN" to="E_WZM_N" />
<trip id="veh200" type="veh_passenger" depart="83" departLane="best" from ="E_BLK_W_AYA" to="E_AYA_N" />
<trip id="veh201" type="veh_passenger" depart="84" departLane="best" from ="E_YMK_E_WZM" to="E_NMR_S" />
<trip id="veh202" type="veh_passenger" depart="84" departLane="best" from ="E_NMR_S_YMK" to="E_HRZ_E" />
<trip id="veh203" type="veh_passenger" depart="85" departLane="best" from ="E_YMK_E_WZM" to="E_NMR_N" />
<trip id="veh204" type="veh_passenger" depart="85" departLane="best" from ="E_AYA_N_HLC" to="E_PNK_W" />
<trip id="veh205" type="veh_passenger" depart="85" departLane="best" from ="E_AYA_N_HLC" to="E_NMR_N" />
<trip id="veh206" type="veh_passenger" depart="86" departLane="best" from ="E_DOR_W_NMR" to="E_NMR_N" />
<trip id="veh207" type="veh_passenger" depart="86" departLane="best" from ="E_PNK_E_WZM" to="E_AYA_N" />
<trip id="veh208" type="veh_passenger" depart="87" departLane="best" from ="E_BLK_W_AYA" to="E_AYA_S" />
<trip id="veh209" type="veh_passenger" depart="87" departLane="best" from ="E_WZM_S_YMK" to="E_HRZ_E" />
<trip id="veh210" type="veh_passenger" depart="89" departLane="best" from ="E_NMR_N_JBT" to="E_BLK_E" />
<trip id="veh211" type="veh_passenger" depart="90" departLane="best" from ="E_WZM_S_YMK" to="E_BLK_E" />
<trip id="veh212" type="veh_passenger" depart="92" departLane="best" from ="E_HZG_W_NMR" to="E_DOR_E" />
<trip id="veh213" type="veh_passenger" depart="92" departLane="best" from ="E_WZM_S_YMK" to="E_AYA_S" />
<trip id="veh214" type="veh_passenger" depart="92" departLane="best" from ="E_NMR_S_YMK" to="E_AYA_N" />
<trip id="veh215" type="veh_passenger" depart="92" departLane="best" from ="E_HZG_W_NMR" to="E_JBT_W" />
<trip id="veh216" type="veh_passenger" depart="92" departLane="best" from ="E_BLK_W_AYA" to="E_WZM_S" />
<trip id="veh217" type="veh_passenger" depart="92" departLane="best" from ="E_WZM_S_YMK" to="E_AYA_S" />
<trip id="veh218" type="veh_passenger" depart="93" departLane="best" from ="E_PNK_E_WZM" to="E_AYA_N" />
<trip id="veh219" type="veh_passenger" depart="93" departLane="best" from ="E_NMR_N_JBT" to="E_NMR_N" />
<trip id="veh220" type="veh_passenger" depart="93" departLane="best" from ="E_AYA_N_HLC" to="E_WZM_N" />
<trip id="veh221" type="veh_passenger" depart="93" departLane="best" from ="E_JBT_E_NMR" to="E_BLK_E" />
<trip id="veh222" type="veh_passenger" depart="94" departLane="best" from ="E_JBT_E_NMR" to="E_BLK_E" />
<trip id="veh223" type="veh_passenger" depart="94" departLane="best" from ="E_DOR_W_NMR" to="E_NMR_N" />
<trip id="veh224" type="veh_passenger" depart="94" departLane="best" from ="E_WZM_S_YMK" to="E_BLK_E" />
<trip id="veh225" type="veh_passenger" depart="94" departLane="best" from ="E_PNK_E_WZM" to="E_AYA_N" />
<trip id="veh226" type="veh_passenger" depart="94" departLane="best" from ="E_JBT_E_NMR" to="E_AYA_S" />
<trip id="veh227" type="veh_passenger" depart="95" departLane="best" from ="E_NMR_S_YMK" to="E_NMR_S" />
<trip id="veh228" type="veh_passenger" depart="95" departLane="best" from ="E_NMR_S_YMK" to="E_JBT_W" />
<trip id="veh229" type="veh_passenger" depart="96" departLane="best" from ="E_AYA_N_HLC" to="E_NMR_N" />
<trip id="veh230" type="veh_passenger" depart="96" departLane="best" from ="E_WZM_S_YMK" to="E_YMK_W" />
<trip id="veh231" type="veh_passenger" depart="96" departLane="best" from ="E_AYA_N_GRN" to="E_NMR_N" />
<trip id="veh232" type="veh_passenger" depart="98" departLane="best" from ="E_YMK_E_WZM" to="E_DOR_E" />
<trip id="veh233" type="veh_passenger" depart="98" departLane="best" from ="E_HZG_W_NMR" to="E_AYA_N" />
<trip id="veh234" type="veh_passenger" depart="99" departLane="best" from ="E_JBT_E_NMR" to="E_AYA_N" />
<trip id="veh235" type="veh_passenger" depart="99" departLane="best" from ="E_PNK_E_WZM" to="E_WZM_S" />
<trip id="veh236" type="veh_passenger" depart="101" departLane="best" from ="E_WZM_N_PNK" to="E_BLK_E" />
<trip id="veh237" type="veh_passenger" depart="101" departLane="best" from ="E_PNK_E_WZM" to="E_WZM_N" />
<trip id="veh238" type="veh_passenger" depart="101" departLane="best" from ="E_JBT_E_NMR" to="E_NMR_S" />
<trip id="veh239" type="veh_passenger" depart="102" departLane="best" from ="E_JBT_E_NMR" to="E_HRZ_E" />
<trip id="veh240" type="veh_passenger" depart="102" departLane="best" from ="E_HZG_W_NMR" to="E_PNK_W" />
<trip id="veh241" type="veh_passenger" depart="103" departLane="best" from ="E_JBT_E_NMR" to="E_NMR_N" />
<trip id="veh242" type="veh_passenger" depart="104" departLane="best" from ="E_WZM_N_PNK" to="E_AYA_N" />
<trip id="veh243" type="veh_passenger" depart="104" departLane="best" from ="E_NMR_S_YMK" to="E_PNK_W" />
<trip id="veh244" type="veh_passenger" depart="105" departLane="best" from ="E_YMK_E_WZM" to="E_HRZ_E" />
<trip id="veh245" type="veh_passenger" depart="106" departLane="best" from ="E_NMR_N_JBT" to="E_HRZ_E" />
<trip id="veh246" type="veh_passenger" depart="106" departLane="best" from ="E_HZG_W_NMR" to="E_NMR_N" />
<trip id="veh247" type="veh_passenger" depart="106" departLane="best" from ="E_NMR_S_YMK" to="E_DOR_E" />
<trip id="veh248" type="veh_passenger" depart="108" departLane="best" from ="E_WZM_S_YMK" to="E_BLK_E" />
<trip id="veh249" type="veh_passenger" depart="109" departLane="best" from ="E_HZG_W_NMR" to="E_NMR_S" />
<trip id="veh250" type="veh_passenger" depart="109" departLane="best" from ="E_DOR_W_NMR" to="E_BLK_E" />
<trip id="veh251" type="veh_passenger" depart="111" departLane="best" from ="E_NMR_S_YMK" to="E_NMR_S" />
<trip id="veh252" type="veh_passenger" depart="111" departLane="best" from ="E_DOR_W_NMR" to="E_BLK_E" />
<trip id="veh253" type="veh_passenger" depart="111" departLane="best" from ="E_NMR_S_YMK" to="E_HRZ_E" />
<trip id="veh254" type="veh_passenger" depart="113" departLane="best" from ="E_PNK_E_WZM" to="E_DOR_E" />
<trip id="veh255" type="veh_passenger" depart="114" departLane="best" from ="E_JBT_E_NMR" to="E_AYA_S" />
<trip id="veh256" type="veh_passenger" depart="115" departLane="best" from ="E_WZM_N_PNK" to="E_AYA_S" />
<trip id="veh257" type="veh_passenger" depart="115" departLane="best" from ="E_AYA_N_GRN" to="E_HRZ_E" />
<trip id="veh258" type="veh_passenger" depart="116" departLane="best" from ="E_WZM_S_YMK" to="E_NMR_S" />
<trip id="veh259" type="veh_passenger" depart="116" departLane="best" from ="E_JBT_E_NMR" to="E_AYA_N" />
<trip id="veh260" type="veh_passenger" depart="116" departLane="best" from ="E_NMR_N_JBT" to="E_DOR_E" />
<trip id="veh261" type="veh_passenger" depart="116" departLane="best" from ="E_YMK_E_WZM" to="E_NMR_S" />
<trip id="veh262" type="veh_passenger" depart="117" departLane="best" from ="E_PNK_E_WZM" to="E_NMR_N" />
<trip id="veh263" type="veh_passenger" depart="117" departLane="best" from ="E_NMR_N_JBT" to="E_NMR_N" />
<trip id="veh264" type="veh_passenger" depart="117" departLane="best" from ="E_WZM_N_PNK" to="E_AYA_S" />
<trip id="veh265" type="veh_passenger" depart="117" departLane="best" from ="E_HZG_W_NMR" to="E_PNK_W" />
<trip id="veh266" type="veh_passenger" depart="117" departLane="best" from ="E_BLK_W_AYA" to="E_WZM_S" />
<trip id="veh267" type="veh_passenger" depart="118" departLane="best" from ="E_JBT_E_NMR" to="E_AYA_N" />
<trip id="veh268" type="veh_passenger" depart="118" departLane="best" from ="E_AYA_N_GRN" to="E_BLK_E" />
<trip id="veh269" type="veh_passenger" depart="120" departLane="best" from ="E_NMR_S_YMK" to="E_WZM_S" />
<trip id="veh270" type="veh_passenger" depart="120" departLane="best" from ="E_YMK_E_WZM" to="E_AYA_S" />
<trip id="veh271" type="veh_passenger" depart="120" departLane="best" from ="E_JBT_E_NMR" to="E_NMR_S" />
<trip id="veh272" type="veh_passenger" depart="120" departLane="best" from ="E_WZM_S_YMK" to="E_AYA_S" />
<trip id="veh273" type="veh_passenger" depart="121" departLane="best" from ="E_HZG_W_NMR" to="E_AYA_N" />
<trip id="veh274" type="veh_passenger" depart="121" departLane="best" from ="E_AYA_N_GRN" to="E_WZM_N" />
<trip id="veh275" type="veh_passenger" depart="124" departLane="best" from ="E_PNK_E_WZM" to="E_DOR_E" />
<trip id="veh276" type="veh_passenger" depart="125" departLane="best" from ="E_AYA_N_GRN" to="E_PNK_W" />
<trip id="veh277" type="veh_passenger" depart="125" departLane="best" from ="E_NMR_N_JBT" to="E_BLK_E" />
<trip id="veh278" type="veh_passenger" depart="125" departLane="best" from ="E_NMR_S_YMK" to="E_HRZ_E" />
<trip id="veh279" type="veh_passenger" depart="125" departLane="best" from ="E_NMR_N_JBT" to="E_NMR_N" />
<trip id="veh280" type="veh_passenger" depart="126" departLane="best" from ="E_BLK_W_AYA" to="E_WZM_N" />
<trip id="veh281" type="veh_passenger" depart="126" departLane="best" from ="E_YMK_E_WZM" to="E_HRZ_E" />
<trip id="veh282" type="veh_passenger" depart="127" departLane="best" from ="E_NMR_N_JBT" to="E_DOR_E" />
<trip id="veh283" type="veh_passenger" depart="127" departLane="best" from ="E_PNK_E_WZM" to="E_NMR_N" />
<trip id="veh284" type="veh_passenger" depart="128" departLane="best" from ="E_HZG_W_NMR" to="E_PNK_W" />