<?xml version="1.0" encoding="UTF-8"?>

<!-- generated on 2023-02-26 21:35:29 by Eclipse SUMO netedit Version 1.12.0
<configuration xmlns:xsi="http://www.w3.org/2001/XMLSchema-instance" xsi:noNamespaceSchemaLocation="http://sumo.dlr.de/xsd/netconvertConfiguration.xsd">

    <input>
        <sumo-net-file value="D:\Nimrod\SUMO\TraCI2\tlvSimple2h\tlvSimple11.net.xml"/>
    </input>

    <output>
        <output-file value="D:\Nimrod\SUMO\TraCI2\tlvSimple2h\tlvSimple11.net.xml"/>
    </output>

    <processing>
        <geometry.min-radius.fix.railways value="false"/>
        <geometry.max-grade.fix value="false"/>
        <offset.disable-normalization value="true"/>
        <lefthand value="false"/>
    </processing>

    <junctions>
        <no-turnarounds value="true"/>
        <junctions.corner-detail value="5"/>
        <junctions.limit-turn-speed value="5.5"/>
        <rectangular-lane-cut value="false"/>
    </junctions>

    <pedestrian>
        <walkingareas value="false"/>
    </pedestrian>

    <report>
        <aggregate-warnings value="5"/>
    </report>

</configuration>
-->

<net version="1.9" junctionCornerDetail="5" limitTurnSpeed="5.50" xmlns:xsi="http://www.w3.org/2001/XMLSchema-instance" xsi:noNamespaceSchemaLocation="http://sumo.dlr.de/xsd/net_file.xsd">

    <location netOffset="0.00,0.00" convBoundary="0.00,0.00,1570.00,1600.00" origBoundary="-10000000000.00,-10000000000.00,10000000000.00,10000000000.00" projParameter="!"/>

    <edge id=":J12_0" function="internal">
        <lane id=":J12_0_0" index="0" speed="8.34" length="7.45" shape="693.20,909.33 693.46,910.70 694.22,912.16 695.50,913.70 697.29,915.31"/>
    </edge>
    <edge id=":J12_1" function="internal">
        <lane id=":J12_1_0" index="0" speed="19.44" length="7.93" shape="693.20,909.33 693.20,917.26"/>
        <lane id=":J12_1_1" index="1" speed="19.44" length="7.93" shape="690.00,909.33 690.00,917.26"/>
        <lane id=":J12_1_2" index="2" speed="19.44" length="7.93" shape="686.80,909.33 686.80,917.26"/>
        <lane id=":J12_1_3" index="3" speed="19.44" length="7.93" shape="683.60,909.33 683.60,917.26"/>
    </edge>
    <edge id=":J14_0" function="internal">
        <lane id=":J14_0_0" index="0" speed="8.43" length="7.45" shape="1288.86,1014.70 1287.09,1016.34 1285.82,1017.89 1285.05,1019.35 1284.80,1020.71"/>
    </edge>
    <edge id=":J14_1" function="internal">
        <lane id=":J14_1_0" index="0" speed="16.66" length="7.91" shape="1284.80,1012.79 1284.80,1020.71"/>
        <lane id=":J14_1_1" index="1" speed="16.66" length="7.91" shape="1281.60,1012.79 1281.60,1020.71"/>
    </edge>
    <edge id=":J16_0" function="internal">
        <lane id=":J16_0_0" index="0" speed="13.89" length="14.41" shape="602.14,335.20 606.40,334.51 609.27,332.78 611.60,330.52 614.25,328.23"/>
    </edge>
    <edge id=":J16_1" function="internal">
        <lane id=":J16_1_0" index="0" speed="13.89" length="13.61" shape="602.14,335.20 606.14,334.70 608.78,333.60 611.43,332.50 615.42,332.00"/>
        <lane id=":J16_1_1" index="1" speed="13.89" length="13.61" shape="602.14,338.40 606.14,337.90 608.78,336.80 611.43,335.70 615.42,335.20"/>
        <lane id=":J16_1_2" index="2" speed="13.89" length="13.61" shape="602.14,338.40 615.42,338.40"/>
    </edge>
    <edge id=":J18_0" function="internal">
        <lane id=":J18_0_0" index="0" speed="6.96" length="4.87" shape="623.64,366.79 622.74,365.92 621.73,365.30 620.60,364.92 619.36,364.80"/>
    </edge>
    <edge id=":J18_1" function="internal">
        <lane id=":J18_1_0" index="0" speed="13.89" length="5.20" shape="624.56,361.60 619.36,361.60"/>
    </edge>
    <edge id=":J2_0" function="internal">
        <lane id=":J2_0_0" index="0" speed="13.89" length="8.54" shape="606.00,955.20 608.46,954.70 610.00,953.60 611.54,952.50 614.00,952.00"/>
        <lane id=":J2_0_1" index="1" speed="13.89" length="8.54" shape="606.00,958.40 608.46,957.90 610.00,956.80 611.54,955.70 614.00,955.20"/>
        <lane id=":J2_0_2" index="2" speed="13.89" length="8.54" shape="606.00,958.40 614.00,958.40"/>
    </edge>
    <edge id=":J20_0" function="internal">
        <lane id=":J20_0_0" index="0" speed="16.66" length="0.10" shape="1288.00,910.00 1288.00,910.00"/>
        <lane id=":J20_0_1" index="1" speed="16.66" length="0.10" shape="1284.80,910.00 1284.80,910.00"/>
        <lane id=":J20_0_2" index="2" speed="16.66" length="0.10" shape="1281.60,910.00 1281.60,910.00"/>
    </edge>
    <edge id=":J22_0" function="internal">
        <lane id=":J22_0_0" index="0" speed="8.43" length="7.45" shape="294.70,951.14 296.34,952.91 297.89,954.18 299.35,954.95 300.71,955.20"/>
    </edge>
    <edge id=":J22_1" function="internal">
        <lane id=":J22_1_0" index="0" speed="13.89" length="7.91" shape="292.79,955.20 300.71,955.20"/>
        <lane id=":J22_1_1" index="1" speed="13.89" length="7.91" shape="292.79,958.40 300.71,958.40"/>
    </edge>
    <edge id=":J23_0" function="internal">
        <lane id=":J23_0_0" index="0" speed="8.94" length="7.47" shape="619.24,981.94 617.44,980.22 615.81,978.98 614.36,978.25 613.08,978.00"/>
    </edge>
    <edge id=":J23_1" function="internal">
        <lane id=":J23_1_0" index="0" speed="13.89" length="7.85" shape="620.92,978.00 613.08,978.00"/>
        <lane id=":J23_1_1" index="1" speed="13.89" length="7.85" shape="620.92,974.80 613.08,974.80"/>
        <lane id=":J23_1_2" index="2" speed="13.89" length="7.85" shape="620.92,971.60 613.08,971.60"/>
    </edge>
    <edge id=":J24_0" function="internal">
        <lane id=":J24_0_0" index="0" speed="9.11" length="7.49" shape="296.58,978.00 295.32,978.24 293.87,978.98 292.21,980.20 290.36,981.90"/>
    </edge>
    <edge id=":J24_1" function="internal">
        <lane id=":J24_1_0" index="0" speed="13.89" length="7.84" shape="296.58,978.00 288.74,978.00"/>
        <lane id=":J24_1_1" index="1" speed="13.89" length="7.84" shape="296.58,974.80 288.74,974.80"/>
        <lane id=":J24_1_2" index="2" speed="13.89" length="7.84" shape="296.58,971.60 288.74,971.60"/>
    </edge>
    <edge id=":J29_0" function="internal">
        <lane id=":J29_0_0" index="0" speed="14.22" length="17.73" shape="699.40,1017.55 695.72,1020.94 692.73,1023.19 690.73,1025.81 690.00,1030.31"/>
        <lane id=":J29_0_1" index="1" speed="15.13" length="17.73" shape="697.00,1015.43 692.89,1019.34 689.66,1022.03 687.55,1025.13 686.80,1030.31"/>
    </edge>
    <edge id=":J29_2" function="internal">
        <lane id=":J29_2_0" index="0" speed="19.44" length="16.63" shape="693.20,1014.00 692.70,1018.88 691.60,1022.15 690.50,1025.43 690.00,1030.31"/>
        <lane id=":J29_2_1" index="1" speed="19.44" length="16.63" shape="690.00,1014.00 689.50,1018.88 688.40,1022.15 687.30,1025.43 686.80,1030.31"/>
        <lane id=":J29_2_2" index="2" speed="19.44" length="16.63" shape="686.80,1014.00 686.30,1018.88 685.20,1022.15 684.10,1025.43 683.60,1030.31"/>
        <lane id=":J29_2_3" index="3" speed="19.44" length="16.63" shape="683.60,1014.00 683.60,1030.31"/>
    </edge>
    <edge id=":J3_0" function="internal">
        <lane id=":J3_0_0" index="0" speed="19.44" length="8.09" shape="650.00,308.72 650.00,300.63"/>
        <lane id=":J3_0_1" index="1" speed="19.44" length="8.09" shape="653.20,308.72 653.20,300.63"/>
        <lane id=":J3_0_2" index="2" speed="19.44" length="8.09" shape="656.40,308.72 656.40,300.63"/>
    </edge>
    <edge id=":J3_3" function="internal">
        <lane id=":J3_3_0" index="0" speed="7.93" length="7.50" shape="645.76,306.50 647.62,305.03 648.94,303.57 649.74,302.10 650.00,300.63"/>
    </edge>
    <edge id=":J30_0" function="internal">
        <lane id=":J30_0_0" index="0" speed="19.44" length="0.10" shape="690.00,1280.00 690.00,1280.00"/>
        <lane id=":J30_0_1" index="1" speed="19.44" length="0.10" shape="686.80,1280.00 686.80,1280.00"/>
        <lane id=":J30_0_2" index="2" speed="19.44" length="0.10" shape="683.60,1280.00 683.60,1280.00"/>
    </edge>
    <edge id=":J31_0" function="internal">
        <lane id=":J31_0_0" index="0" speed="7.83" length="6.06" shape="734.04,981.20 732.77,981.38 731.50,981.93 730.21,982.85 728.92,984.13"/>
    </edge>
    <edge id=":J31_1" function="internal">
        <lane id=":J31_1_0" index="0" speed="19.44" length="10.02" shape="734.04,981.20 731.19,980.70 729.38,979.60 727.56,978.50 724.72,978.00"/>
    </edge>
    <edge id=":J31_2" function="internal">
        <lane id=":J31_2_0" index="0" speed="9.32" length="8.77" shape="734.04,978.00 732.08,978.25 730.17,979.00 728.32,980.26 726.53,982.01"/>
    </edge>
    <edge id=":J31_3" function="internal">
        <lane id=":J31_3_0" index="0" speed="19.44" length="9.55" shape="734.04,978.00 731.19,977.50 729.38,976.40 727.56,975.30 724.72,974.80"/>
        <lane id=":J31_3_1" index="1" speed="19.44" length="9.55" shape="734.04,974.80 724.72,974.80"/>
        <lane id=":J31_3_2" index="2" speed="19.44" length="9.55" shape="734.04,971.60 724.72,971.60"/>
    </edge>
    <edge id=":J34_0" function="internal">
        <lane id=":J34_0_0" index="0" speed="7.57" length="4.03" shape="737.09,947.50 738.03,948.22 738.76,948.61 739.58,948.77 740.76,948.80"/>
    </edge>
    <edge id=":J34_1" function="internal">
        <lane id=":J34_1_0" index="0" speed="19.44" length="4.13" shape="736.63,952.00 740.76,952.00"/>
        <lane id=":J34_1_1" index="1" speed="19.44" length="4.13" shape="736.63,955.20 740.76,955.20"/>
        <lane id=":J34_1_2" index="2" speed="19.44" length="4.13" shape="736.63,958.40 740.76,958.40"/>
    </edge>
    <edge id=":J35_0" function="internal">
        <lane id=":J35_0_0" index="0" speed="9.06" length="3.82" shape="913.95,948.80 915.07,948.78 915.85,948.66 916.57,948.37 917.55,947.82"/>
    </edge>
    <edge id=":J35_1" function="internal">
        <lane id=":J35_1_0" index="0" speed="19.44" length="3.87" shape="913.95,952.00 917.82,952.00"/>
        <lane id=":J35_1_1" index="1" speed="19.44" length="3.87" shape="913.95,955.20 917.82,955.20"/>
        <lane id=":J35_1_2" index="2" speed="19.44" length="3.87" shape="913.95,958.40 917.82,958.40"/>
    </edge>
    <edge id=":J37_0" function="internal">
        <lane id=":J37_0_0" index="0" speed="19.44" length="6.41" shape="980.20,916.05 980.20,909.65"/>
        <lane id=":J37_0_1" index="1" speed="19.44" length="6.41" shape="983.40,916.05 983.40,909.65"/>
    </edge>
    <edge id=":J37_2" function="internal">
        <lane id=":J37_2_0" index="0" speed="6.76" length="5.83" shape="974.24,914.47 975.45,913.56 976.31,912.45 976.83,911.15 977.00,909.65"/>
    </edge>
    <edge id=":J40_0" function="internal">
        <lane id=":J40_0_0" index="0" speed="19.44" length="3.42" shape="1009.40,902.19 1009.41,903.20 1009.46,903.90 1009.60,904.58 1009.86,905.56"/>
        <lane id=":J40_0_1" index="1" speed="19.44" length="4.29" shape="1006.20,902.19 1006.21,903.46 1006.27,904.33 1006.45,905.19 1006.78,906.42"/>
    </edge>
    <edge id=":J40_2" function="internal">
        <lane id=":J40_2_0" index="0" speed="19.44" length="3.87" shape="1003.00,902.19 1003.00,906.06"/>
        <lane id=":J40_2_1" index="1" speed="19.44" length="3.87" shape="999.80,902.19 999.80,906.06"/>
        <lane id=":J40_2_2" index="2" speed="19.44" length="3.87" shape="996.60,902.19 996.60,906.06"/>
    </edge>
    <edge id=":J48_0" function="internal">
        <lane id=":J48_0_0" index="0" speed="8.33" length="0.10" shape="730.00,1339.80 730.00,1339.80"/>
        <lane id=":J48_0_1" index="1" speed="8.33" length="0.10" shape="730.00,1336.60 730.00,1336.60"/>
    </edge>
    <edge id=":J51_0" function="internal">
        <lane id=":J51_0_0" index="0" speed="19.44" length="0.10" shape="646.80,1385.00 646.80,1385.00"/>
        <lane id=":J51_0_1" index="1" speed="19.44" length="0.10" shape="650.00,1385.00 650.00,1385.00"/>
        <lane id=":J51_0_2" index="2" speed="19.44" length="0.10" shape="653.20,1385.00 653.20,1385.00"/>
        <lane id=":J51_0_3" index="3" speed="19.44" length="0.10" shape="656.40,1385.00 656.40,1385.00"/>
    </edge>
    <edge id=":J55_0" function="internal">
        <lane id=":J55_0_0" index="0" speed="8.33" length="0.10" shape="300.00,1336.60 300.00,1336.60"/>
    </edge>
    <edge id=":J56_0" function="internal">
        <lane id=":J56_0_0" index="0" speed="8.33" length="0.10" shape="610.00,1325.20 610.00,1325.20"/>
        <lane id=":J56_0_1" index="1" speed="8.33" length="0.10" shape="610.00,1328.40 610.00,1328.40"/>
    </edge>
    <edge id=":J59_0" function="internal">
        <lane id=":J59_0_0" index="0" speed="8.33" length="0.10" shape="254.80,1280.00 254.80,1280.00"/>
        <lane id=":J59_0_1" index="1" speed="8.33" length="0.10" shape="251.60,1280.00 251.60,1280.00"/>
    </edge>
    <edge id=":J6_0" function="internal">
        <lane id=":J6_0_0" index="0" speed="7.31" length="7.72" shape="717.32,330.63 718.49,332.63 719.83,334.06 721.35,334.91 723.03,335.20"/>
    </edge>
    <edge id=":J6_1" function="internal">
        <lane id=":J6_1_0" index="0" speed="13.89" length="8.60" shape="714.43,335.20 723.03,335.20"/>
        <lane id=":J6_1_1" index="1" speed="13.89" length="8.60" shape="714.43,338.40 723.03,338.40"/>
    </edge>
    <edge id=":J63_0" function="internal">
        <lane id=":J63_0_0" index="0" speed="8.33" length="9.22" shape="243.40,1389.00 242.40,1386.36 240.20,1385.05 238.00,1383.71 237.00,1381.00"/>
        <lane id=":J63_0_1" index="1" speed="8.33" length="9.22" shape="243.40,1389.00 242.90,1386.54 241.80,1385.00 240.70,1383.46 240.20,1381.00"/>
        <lane id=":J63_0_2" index="2" speed="8.33" length="9.22" shape="243.40,1389.00 243.40,1381.00"/>
    </edge>
    <edge id=":J67_0" function="internal">
        <lane id=":J67_0_0" index="0" speed="8.33" length="8.27" shape="240.20,1024.00 239.70,1021.54 238.60,1020.00 237.50,1018.46 237.00,1016.00"/>
        <lane id=":J67_0_1" index="1" speed="8.33" length="8.27" shape="240.20,1024.00 240.20,1016.00"/>
        <lane id=":J67_0_2" index="2" speed="8.33" length="8.27" shape="243.40,1024.00 243.40,1016.00"/>
    </edge>
    <edge id=":J68_0" function="internal">
        <lane id=":J68_0_0" index="0" speed="8.33" length="8.40" shape="196.00,1328.40 198.46,1327.90 200.00,1326.80 201.54,1325.70 204.00,1325.20"/>
        <lane id=":J68_0_1" index="1" speed="8.33" length="8.40" shape="196.00,1328.40 204.00,1328.40"/>
    </edge>
    <edge id=":J73_0" function="internal">
        <lane id=":J73_0_0" index="0" speed="9.23" length="7.70" shape="258.70,1013.56 257.00,1015.11 255.78,1016.27 255.04,1017.63 254.80,1019.78"/>
    </edge>
    <edge id=":J73_1" function="internal">
        <lane id=":J73_1_0" index="0" speed="8.33" length="7.84" shape="254.80,1011.94 254.80,1019.78"/>
        <lane id=":J73_1_1" index="1" speed="8.33" length="7.84" shape="251.60,1011.94 251.60,1019.78"/>
    </edge>
    <edge id=":J74_0" function="internal">
        <lane id=":J74_0_0" index="0" speed="13.89" length="8.27" shape="186.00,955.20 188.46,954.70 190.00,953.60 191.54,952.50 194.00,952.00"/>
        <lane id=":J74_0_1" index="1" speed="13.89" length="8.27" shape="186.00,955.20 194.00,955.20"/>
        <lane id=":J74_0_2" index="2" speed="13.89" length="8.27" shape="186.00,958.40 194.00,958.40"/>
    </edge>
    <edge id=":J79_0" function="internal">
        <lane id=":J79_0_0" index="0" speed="7.47" length="4.05" shape="258.00,905.02 258.03,906.21 258.20,907.03 258.60,907.76 259.33,908.70"/>
    </edge>
    <edge id=":J79_1" function="internal">
        <lane id=":J79_1_0" index="0" speed="8.33" length="4.16" shape="254.80,905.02 254.80,909.18"/>
        <lane id=":J79_1_1" index="1" speed="8.33" length="4.16" shape="251.60,905.02 251.60,909.18"/>
    </edge>
    <edge id=":J8_0" function="internal">
        <lane id=":J8_0_0" index="0" speed="13.89" length="0.10" shape="740.00,364.80 740.00,364.80"/>
        <lane id=":J8_0_1" index="1" speed="13.89" length="0.10" shape="740.00,361.60 740.00,361.60"/>
    </edge>
    <edge id=":J9_0" function="internal">
        <lane id=":J9_0_0" index="0" speed="10.26" length="7.93" shape="1334.98,978.00 1332.75,978.25 1331.33,978.98 1330.09,980.17 1328.35,981.79"/>
    </edge>
    <edge id=":J9_1" function="internal">
        <lane id=":J9_1_0" index="0" speed="13.89" length="8.00" shape="1334.98,978.00 1326.98,978.00"/>
        <lane id=":J9_1_1" index="1" speed="13.89" length="8.00" shape="1334.98,974.80 1326.98,974.80"/>
        <lane id=":J9_1_2" index="2" speed="13.89" length="8.00" shape="1334.98,971.60 1326.98,971.60"/>
    </edge>
    <edge id=":J_GRN_ALN_0" function="internal">
        <lane id=":J_GRN_ALN_0_0" index="0" speed="15.70" length="57.64" shape="1027.98,967.80 1007.07,966.44 992.14,962.36 983.19,955.57 980.20,946.05"/>
        <lane id=":J_GRN_ALN_0_1" index="1" speed="15.02" length="52.62" shape="1027.98,964.60 1008.47,963.44 994.54,959.97 986.19,954.19 983.40,946.09"/>
    </edge>
    <edge id=":J_GRN_ALN_2" function="internal">
        <lane id=":J_GRN_ALN_2_0" index="0" speed="7.37" length="9.41" shape="1021.24,946.53 1022.23,948.92 1023.68,950.63 1025.60,951.66 1027.98,952.00"/>
        <lane id=":J_GRN_ALN_2_1" index="1" speed="8.99" length="14.42" shape="1017.91,946.49 1019.44,950.30 1021.63,953.02 1024.48,954.66 1027.98,955.20"/>
    </edge>
    <edge id=":J_GRN_ALN_4" function="internal">
        <lane id=":J_GRN_ALN_4_0" index="0" speed="14.43" length="48.48" shape="1003.00,946.32 1001.23,960.18 995.90,970.08 987.02,976.02 974.60,978.00"/>
        <lane id=":J_GRN_ALN_4_1" index="1" speed="13.66" length="43.35" shape="999.80,946.28 998.22,958.76 993.50,967.67 985.62,973.02 974.60,974.80"/>
        <lane id=":J_GRN_ALN_4_2" index="2" speed="12.85" length="38.23" shape="996.60,946.24 995.23,957.34 991.10,965.26 984.23,970.02 974.60,971.60"/>
    </edge>
    <edge id=":J_GRN_ALN_7" function="internal">
        <lane id=":J_GRN_ALN_7_0" index="0" speed="19.44" length="53.38" shape="974.60,952.00 1027.98,952.00"/>
        <lane id=":J_GRN_ALN_7_1" index="1" speed="19.44" length="53.38" shape="974.60,955.20 1027.98,955.20"/>
        <lane id=":J_GRN_ALN_7_2" index="2" speed="19.44" length="53.38" shape="974.60,958.40 1027.98,958.40"/>
    </edge>
    <edge id=":J_GRN_ALN_10" function="internal">
        <lane id=":J_GRN_ALN_10_0" index="0" speed="19.44" length="53.40" shape="1027.98,978.00 974.60,981.20"/>
        <lane id=":J_GRN_ALN_10_1" index="1" speed="19.44" length="53.40" shape="1027.98,978.00 974.60,978.00"/>
        <lane id=":J_GRN_ALN_10_2" index="2" speed="19.44" length="53.40" shape="1027.98,974.80 974.60,974.80"/>
        <lane id=":J_GRN_ALN_10_3" index="3" speed="19.44" length="53.40" shape="1027.98,971.60 974.60,971.60"/>
    </edge>
    <edge id=":J_HLC_AYA_0" function="internal">
        <lane id=":J_HLC_AYA_0_0" index="0" speed="16.66" length="23.60" shape="1293.60,978.00 1270.00,978.00"/>
        <lane id=":J_HLC_AYA_0_1" index="1" speed="16.66" length="23.60" shape="1293.60,974.80 1270.00,974.80"/>
        <lane id=":J_HLC_AYA_0_2" index="2" speed="16.66" length="23.60" shape="1293.60,971.60 1270.00,971.60"/>
    </edge>
    <edge id=":J_HLC_AYA_3" function="internal">
        <lane id=":J_HLC_AYA_3_0" index="0" speed="6.97" length="10.52" shape="1288.00,944.60 1288.35,947.84 1289.40,950.15 1291.15,951.54 1293.60,952.00"/>
        <lane id=":J_HLC_AYA_3_1" index="1" speed="8.38" length="15.67" shape="1284.80,944.60 1285.35,949.24 1287.00,952.55 1289.75,954.54 1293.60,955.20"/>
    </edge>
    <edge id=":J_HLC_AYA_5" function="internal">
        <lane id=":J_HLC_AYA_5_0" index="0" speed="12.67" length="37.14" shape="1284.80,944.60 1283.88,957.81 1281.10,967.25 1276.47,972.91 1270.00,974.80"/>
        <lane id=":J_HLC_AYA_5_1" index="1" speed="11.81" length="32.12" shape="1281.60,944.60 1280.88,956.41 1278.70,964.85 1275.07,969.91 1270.00,971.60"/>
    </edge>
    <edge id=":J_HLC_AYA_7" function="internal">
        <lane id=":J_HLC_AYA_7_0" index="0" speed="16.66" length="24.07" shape="1270.00,950.20 1293.60,952.00"/>
        <lane id=":J_HLC_AYA_7_1" index="1" speed="16.66" length="24.07" shape="1270.00,950.20 1276.21,950.98 1281.03,952.70 1286.23,954.42 1293.60,955.20"/>
        <lane id=":J_HLC_AYA_7_2" index="2" speed="16.66" length="24.07" shape="1270.00,953.40 1276.21,954.18 1281.03,955.90 1286.23,957.62 1293.60,958.40"/>
    </edge>
    <edge id=":J_HLC_AYA_10" function="internal">
        <lane id=":J_HLC_AYA_10_0" index="0" speed="12.09" length="33.75" shape="1270.00,957.20 1276.47,958.85 1281.10,963.80 1283.88,972.05 1284.80,983.60"/>
        <lane id=":J_HLC_AYA_10_1" index="1" speed="11.18" length="28.69" shape="1270.00,960.40 1275.07,961.85 1278.70,966.20 1280.88,973.45 1281.60,983.60"/>
    </edge>
    <edge id=":J_NMR_JBT_0" function="internal">
        <lane id=":J_NMR_JBT_0_0" index="0" speed="14.83" length="51.28" shape="660.40,370.40 665.15,361.80 676.27,351.20 689.05,342.20 698.80,338.40"/>
    </edge>
    <edge id=":J_NMR_JBT_1" function="internal">
        <lane id=":J_NMR_JBT_1_0" index="0" speed="6.51" length="9.03" shape="698.80,364.80 696.35,365.15 694.60,366.20 693.55,367.95 693.20,370.40"/>
        <lane id=":J_NMR_JBT_1_1" index="1" speed="8.00" length="14.19" shape="698.80,361.60 694.95,362.15 692.20,363.80 690.55,366.55 690.00,370.40"/>
        <lane id=":J_NMR_JBT_1_2" index="2" speed="8.67" length="16.85" shape="698.80,361.60 693.55,362.15 689.80,363.80 687.55,366.55 686.80,370.40"/>
        <lane id=":J_NMR_JBT_1_3" index="3" speed="9.32" length="19.63" shape="698.80,361.60 692.15,362.15 687.40,363.80 684.55,366.55 683.60,370.40"/>
    </edge>
    <edge id=":J_NMR_JBT_5" function="internal">
        <lane id=":J_NMR_JBT_5_0" index="0" speed="19.44" length="44.00" shape="693.20,326.40 693.20,370.40"/>
        <lane id=":J_NMR_JBT_5_1" index="1" speed="19.44" length="44.00" shape="690.00,326.40 690.00,370.40"/>
        <lane id=":J_NMR_JBT_5_2" index="2" speed="19.44" length="44.00" shape="686.80,326.40 686.80,370.40"/>
        <lane id=":J_NMR_JBT_5_3" index="3" speed="19.44" length="44.00" shape="683.60,326.40 683.60,370.40"/>
    </edge>
    <edge id=":J_NMR_JBT_9" function="internal">
        <lane id=":J_NMR_JBT_9_0" index="0" speed="14.52" length="49.11" shape="676.60,326.40 672.82,335.65 663.83,347.33 653.18,357.35 644.40,361.60"/>
    </edge>
    <edge id=":J_NMR_JBT_10" function="internal">
        <lane id=":J_NMR_JBT_10_0" index="0" speed="13.89" length="54.49" shape="644.40,332.00 698.80,335.20"/>
    </edge>
    <edge id=":J_NMR_JBT_11" function="internal">
        <lane id=":J_NMR_JBT_11_0" index="0" speed="16.66" length="67.83" shape="644.40,332.00 664.35,334.40 678.60,341.60 687.15,353.60 690.00,370.40"/>
        <lane id=":J_NMR_JBT_11_1" index="1" speed="16.36" length="62.68" shape="644.40,335.20 662.95,337.40 676.20,344.00 684.15,355.00 686.80,370.40"/>
        <lane id=":J_NMR_JBT_11_2" index="2" speed="15.69" length="57.53" shape="644.40,338.40 661.55,340.40 673.80,346.40 681.15,356.40 683.60,370.40"/>
    </edge>
    <edge id=":J_NMR_JBT_14" function="internal">
        <lane id=":J_NMR_JBT_14_0" index="0" speed="19.44" length="44.00" shape="650.00,370.40 650.00,326.40"/>
        <lane id=":J_NMR_JBT_14_1" index="1" speed="19.44" length="44.00" shape="653.20,370.40 653.20,326.40"/>
        <lane id=":J_NMR_JBT_14_2" index="2" speed="19.44" length="44.00" shape="656.40,370.40 656.40,326.40"/>
    </edge>
    <edge id=":J_NMR_PNK_0" function="internal">
        <lane id=":J_NMR_PNK_0_0" index="0" speed="15.25" length="54.28" shape="660.20,983.60 662.61,971.18 669.85,962.30 681.91,956.98 698.80,955.20"/>
        <lane id=":J_NMR_PNK_0_1" index="1" speed="14.52" length="49.14" shape="663.40,983.60 665.61,972.57 672.25,964.70 683.31,959.98 698.80,958.40"/>
    </edge>
    <edge id=":J_NMR_PNK_2" function="internal">
        <lane id=":J_NMR_PNK_2_0" index="0" speed="16.66" length="57.60" shape="698.80,978.00 641.20,978.00"/>
        <lane id=":J_NMR_PNK_2_1" index="1" speed="16.66" length="57.60" shape="698.80,974.80 641.20,974.80"/>
        <lane id=":J_NMR_PNK_2_2" index="2" speed="16.66" length="57.60" shape="698.80,971.60 641.20,971.60"/>
    </edge>
    <edge id=":J_NMR_PNK_5" function="internal">
        <lane id=":J_NMR_PNK_5_0" index="0" speed="19.44" length="37.20" shape="693.20,946.40 693.20,983.60"/>
        <lane id=":J_NMR_PNK_5_1" index="1" speed="19.44" length="37.20" shape="690.00,946.40 690.00,983.60"/>
        <lane id=":J_NMR_PNK_5_2" index="2" speed="19.44" length="37.20" shape="686.80,946.40 686.80,983.60"/>
        <lane id=":J_NMR_PNK_5_3" index="3" speed="19.44" length="37.20" shape="683.60,946.40 683.60,983.60"/>
    </edge>
    <edge id=":J_NMR_PNK_9" function="internal">
        <lane id=":J_NMR_PNK_9_0" index="0" speed="6.51" length="9.03" shape="641.20,952.00 643.65,951.65 645.40,950.60 646.45,948.85 646.80,946.40"/>
    </edge>
    <edge id=":J_NMR_PNK_10" function="internal">
        <lane id=":J_NMR_PNK_10_0" index="0" speed="16.66" length="57.60" shape="641.20,952.00 698.80,952.00"/>
        <lane id=":J_NMR_PNK_10_1" index="1" speed="16.66" length="57.60" shape="641.20,955.20 698.80,955.20"/>
        <lane id=":J_NMR_PNK_10_2" index="2" speed="16.66" length="57.60" shape="641.20,958.40 698.80,958.40"/>
    </edge>
    <edge id=":J_NMR_PNK_13" function="internal">
        <lane id=":J_NMR_PNK_13_0" index="0" speed="19.44" length="37.34" shape="650.00,983.60 646.80,946.40"/>
        <lane id=":J_NMR_PNK_13_1" index="1" speed="19.44" length="37.34" shape="653.20,983.60 650.00,946.40"/>
        <lane id=":J_NMR_PNK_13_2" index="2" speed="19.44" length="37.34" shape="656.40,983.60 653.20,946.40"/>
    </edge>
    <edge id=":J_NMR_YMK_0" function="internal">
        <lane id=":J_NMR_YMK_0_0" index="0" speed="7.33" length="11.73" shape="646.80,1345.40 646.45,1341.55 645.40,1338.80 643.65,1337.15 641.20,1336.60"/>
    </edge>
    <edge id=":J_NMR_YMK_1" function="internal">
        <lane id=":J_NMR_YMK_1_0" index="0" speed="19.44" length="25.80" shape="646.80,1345.40 646.80,1319.60"/>
        <lane id=":J_NMR_YMK_1_1" index="1" speed="19.44" length="25.80" shape="650.00,1345.40 650.00,1319.60"/>
        <lane id=":J_NMR_YMK_1_2" index="2" speed="19.44" length="25.80" shape="653.20,1345.40 653.20,1319.60"/>
        <lane id=":J_NMR_YMK_1_3" index="3" speed="19.44" length="25.80" shape="656.40,1345.40 656.40,1319.60"/>
    </edge>
    <edge id=":J_NMR_YMK_5" function="internal">
        <lane id=":J_NMR_YMK_5_0" index="0" speed="6.51" length="9.03" shape="695.60,1339.80 693.15,1340.15 691.40,1341.20 690.35,1342.95 690.00,1345.40"/>
    </edge>
    <edge id=":J_NMR_YMK_6" function="internal">
        <lane id=":J_NMR_YMK_6_0" index="0" speed="8.33" length="54.49" shape="695.60,1339.80 641.20,1336.60"/>
    </edge>
    <edge id=":J_NMR_YMK_7" function="internal">
        <lane id=":J_NMR_YMK_7_0" index="0" speed="13.89" length="47.77" shape="695.60,1339.80 685.23,1337.45 671.07,1331.85 658.58,1325.18 653.20,1319.60"/>
        <lane id=":J_NMR_YMK_7_1" index="1" speed="13.68" length="43.50" shape="695.60,1336.60 685.73,1334.69 672.67,1330.09 661.27,1324.49 656.40,1319.60"/>
    </edge>
    <edge id=":J_NMR_YMK_9" function="internal">
        <lane id=":J_NMR_YMK_9_0" index="0" speed="7.33" length="11.73" shape="690.00,1319.60 690.35,1323.45 691.40,1326.20 693.15,1327.85 695.60,1328.40"/>
    </edge>
    <edge id=":J_NMR_YMK_10" function="internal">
        <lane id=":J_NMR_YMK_10_0" index="0" speed="19.44" length="25.80" shape="690.00,1319.60 690.00,1345.40"/>
        <lane id=":J_NMR_YMK_10_1" index="1" speed="19.44" length="25.80" shape="686.80,1319.60 686.80,1345.40"/>
        <lane id=":J_NMR_YMK_10_2" index="2" speed="19.44" length="25.80" shape="683.60,1319.60 683.60,1345.40"/>
    </edge>
    <edge id=":J_NMR_YMK_13" function="internal">
        <lane id=":J_NMR_YMK_13_0" index="0" speed="6.51" length="9.03" shape="641.20,1325.20 643.65,1324.85 645.40,1323.80 646.45,1322.05 646.80,1319.60"/>
    </edge>
    <edge id=":J_NMR_YMK_14" function="internal">
        <lane id=":J_NMR_YMK_14_0" index="0" speed="8.33" length="54.49" shape="641.20,1325.20 695.60,1328.40"/>
    </edge>
    <edge id=":J_NMR_YMK_15" function="internal">
        <lane id=":J_NMR_YMK_15_0" index="0" speed="13.89" length="50.57" shape="641.20,1325.20 652.07,1327.60 667.33,1333.27 680.92,1339.97 686.80,1345.40"/>
        <lane id=":J_NMR_YMK_15_1" index="1" speed="13.89" length="46.34" shape="641.20,1328.40 651.57,1330.36 665.73,1335.04 678.23,1340.65 683.60,1345.40"/>
    </edge>
    <edge id=":J_WZM_PNK_0" function="internal">
        <lane id=":J_WZM_PNK_0_0" index="0" speed="7.33" length="11.73" shape="237.00,983.60 236.65,979.75 235.60,977.00 233.85,975.35 231.40,974.80"/>
    </edge>
    <edge id=":J_WZM_PNK_1" function="internal">
        <lane id=":J_WZM_PNK_1_0" index="0" speed="6.25" length="37.34" shape="237.00,983.60 240.20,946.40"/>
        <lane id=":J_WZM_PNK_1_1" index="1" speed="6.25" length="37.34" shape="240.20,983.60 243.40,946.40"/>
    </edge>
    <edge id=":J_WZM_PNK_3" function="internal">
        <lane id=":J_WZM_PNK_3_0" index="0" speed="11.11" length="32.03" shape="243.40,983.60 245.01,975.91 249.10,967.67 254.60,961.09 260.40,958.40"/>
    </edge>
    <edge id=":J_WZM_PNK_4" function="internal">
        <lane id=":J_WZM_PNK_4_0" index="0" speed="13.89" length="29.22" shape="260.40,978.00 251.12,977.50 244.18,976.40 238.10,975.30 231.40,974.80"/>
        <lane id=":J_WZM_PNK_4_1" index="1" speed="13.89" length="29.22" shape="260.40,974.80 251.12,974.30 244.18,973.20 238.10,972.10 231.40,971.60"/>
    </edge>
    <edge id=":J_WZM_PNK_6" function="internal">
        <lane id=":J_WZM_PNK_6_0" index="0" speed="9.03" length="36.39" shape="260.40,974.80 253.98,971.61 247.40,963.93 242.27,954.59 240.20,946.40"/>